6
Step  34 E=    -301.847827 |G|=  0.002367 S_lin= 1.6072 S_tot= 1.9982
H      -0.6865569117     0.9927464736     0.2661596361
O      -1.5965389202     0.6129904861     0.1833247797
O      -1.3877879169    -0.6678923754    -0.0041162608
H       0.4102949717    -0.9202116523    -0.0632005550
O       1.3299834868    -0.5519208422    -0.0320117945
O       1.1432951045     0.7243344340     0.2091896384
