5
Step  25 E=    -152.054124 |G|=  0.002494 S_lin= 1.2822 S_tot= 1.3286
O       0.7969930869    -0.2023615553     0.1048485654
O      -0.4094569213     0.5516080495    -0.0347227936
H       1.1345167015    -0.1796518705    -0.7982528566
H      -1.0724304112    -0.1424178364     0.0723722394
H      -2.1843074309    -1.6921577482    -0.0619481524
