5
Step  28 E=    -226.622156 |G|=  0.002417 S_lin= 1.1540 S_tot= 1.3107
O       1.0748312823    -0.5966238606    -0.1042576559
O       0.5769736199     0.7192884804     0.1664806978
H       1.1965902882    -0.9351175699     0.7901607348
H      -0.3169648773     0.6444781970    -0.1930381809
O      -2.2510564599    -0.1403433178    -0.0228734352
