5
Step  15 E=    -226.659482 |G|=  0.002165 S_lin= 0.6345 S_tot= 0.7004
O       0.7823514827    -0.6538349718    -0.1263170661
O       0.9891670544     0.6129978728     0.1564053900
H      -0.1976069256    -0.7321147535    -0.1428453698
H      -1.5071326045     0.8018197061     0.5661011439
O      -1.8965423314     0.0211451378     0.1255601401
