6
Step -36 E=    -301.885983 |G|=  0.002075 S_lin= 1.6795 S_tot= 1.9267
H      -1.2314483492     1.0499005316     0.6605231837
O      -1.2906830861     0.6030795270    -0.1925396474
O      -1.2604951103    -0.7680070803     0.2086741829
H      -0.3746523044    -1.0267110618    -0.0759083325
O       1.7151996234    -0.4241568354    -0.1173677064
O       1.6547690381     0.7559412991     0.0759641571
