5
Step -32 E=    -152.085984 |G|=  0.002392 S_lin= 1.8179 S_tot= 1.9545
O       0.9052291146    -0.0335259009     0.1040026027
O      -0.0474388067     0.8692963800     0.0274787014
H       1.1323128427    -0.2456965749    -0.8180998428
H      -1.6994160173    -0.7986464885     0.0426315828
H      -2.0253722936    -1.4564081807    -0.0737160952
