5
Step -36 E=    -226.757936 |G|=  0.002347 S_lin= 1.7488 S_tot= 2.1016
O       1.2381149385    -0.6037051444    -0.0196488879
O       1.3197908285     0.5856036928     0.0954411556
H      -1.0178445454    -0.5544044180    -0.1198873493
H      -1.5436698648     0.6901589389     0.5701735344
O      -1.8261541190    -0.0676408544     0.0528259461
