6
Step -37 E=    -227.298195 |G|=  0.002484 S_lin= 1.2806 S_tot= 1.5721
O      -0.6682888212    -0.8597871435     0.2273613706
O      -1.0329252795     0.5274941777     0.1687210875
H      -1.6826146675     0.5106134086    -0.5430746118
H       0.2933278685    -0.7823663502     0.1174484536
O       1.9304366060     0.3017263538    -0.2141658029
H       1.3243563219     1.0564802850    -0.3453841887
