5
Step -26 E=    -226.651128 |G|=  0.002410 S_lin= 1.4159 S_tot= 1.5844
O       1.0473955849    -0.5839561899    -0.0209038418
O       0.8577683904     0.6816745361     0.2796252368
H       1.3894217986    -0.9923499321     0.7939303233
H      -1.1056366152     0.5564836996    -0.2942515281
O      -1.9085751701     0.0298300859    -0.1219278500
