5
Step   0 E=    -152.041790 |G|=  0.000003 S_lin= 0.0000 S_tot= 0.0000
H       1.0789665963    -0.7089858569     0.4752500495
O       0.8768890985     0.0480647263    -0.0882093542
O      -0.6460282859    -0.0180369008    -0.0259363349
H      -0.8178465421     0.8297045665     0.4045405273
H      -2.1345086694    -0.4611040046    -0.0834321577
