6
Step   0 E=    -227.291346 |G|=  0.000207 S_lin= 0.0000 S_tot= 0.0000
O      -0.4710996185    -0.7562336270    -0.0304765023
O      -1.2218833879     0.3876651083     0.2931674813
H      -1.6974529510     0.5410491159    -0.5326269796
H       0.4813521064    -0.4885288511     0.2592724629
O       1.6796200824     0.0938798483    -0.1468236488
H       1.3937556227     0.9763294258    -0.4316064632
