5
Step   0 E=    -152.044153 |G|=  0.000006 S_lin= 0.0000 S_tot= 0.0000
O       0.7557647713    -0.1655962490     0.1192620936
O      -0.5083876099     0.4033473827    -0.0147516772
H       1.0665357250    -0.2067514092    -0.7948911626
H      -1.2038209469    -0.4432110113     0.0159303829
H      -1.8447770259    -1.2527695715    -0.0432526304
