6
Step   0 E=    -301.831052 |G|=  0.000001 S_lin= 0.0000 S_tot= 0.0000
H      -1.0941080974     1.0596683474     0.6584049674
O      -1.3045156377     0.5929461601    -0.1687708719
O      -1.1389387216    -0.7030530355     0.1075945453
H       0.1967041402    -0.8399944192    -0.0272209900
O       1.2464276193    -0.5910986985    -0.0786548508
O       1.3071205148     0.6715780913     0.0679928573
