5
Step   0 E=    -226.655187 |G|=  0.000236 S_lin= 0.0000 S_tot= 0.0000
O       0.6816422070    -0.6420085199    -0.0266857262
O       1.0911058130     0.5838764922     0.0897554144
H      -0.3240055443    -0.5675730510    -0.1621963294
H      -1.5236555695     0.7393876944     0.5900072792
O      -1.7548499040    -0.0636700685     0.0880236833
